Input file: downloaded/HOMD_16S_rRNA_RefSeq_V16.01_full.fasta
Output file: HOMD_16S_rRNA_RefSeq_V16.01_full_filtered.fasta
Date/time: 2025-05-20 16:08:49
Total sequences in input: 6880
Sequences excluded: 29
Sequences kept: 6851

=== Excluded Sequence IDs ===
HMT-886_16S002320
HMT-720_16S003525
HMT-721_16S004505
HMT-175_16S004795
HMT-478_16S004897
HMT-478_16S004899
HMT-137_16S004904
HMT-149_16S004983
HMT-292_16S005866
HMT-292_16S005881
HMT-293_16S005937
HMT-472_16S006043
HMT-987_16S006299
HMT-369_16S006357
HMT-938_16S006373
HMT-412_16S006396
HMT-864_16S006405
HMT-335_16S006409
HMT-902_16S006411
HMT-336_16S006423
HMT-380_16S006424
HMT-996_16S006587
HMT-652_16S006596
HMT-636_16S006598
HMT-149_16S006705
HMT-175_16S006711
HMT-472_16S006739
HMT-323_16S006765
HMT-335_16S006769